CRYSTAL
PRIMVEC
 12.14764022827148 0.00000000000000 0.00000000000000
 0.01015691179782 14.91211128234863 0.00000000000000
 -2.99712538719177 -0.07326384633780 14.16248416900635
PRIMCOORD
 218 1
 13    10.00184154510498     9.67611885070801     6.89641714096069
 13     7.13329076766968     8.66352176666260     7.88756608963013
 13     4.03391408920288     9.64428997039795     6.94862842559814
  8     8.29808330535889     7.34987831115723     8.64465045928955
  8     0.57795917987823     0.52298599481583    11.97752571105957
  8     8.30317687988281     9.18885993957520     6.56219530105591
  1     7.91041326522827     8.96627521514893     5.70205736160278
  8    11.05625724792480     2.42335987091064    11.90470790863037
  8     5.85860490798950     9.86872577667236     7.15711212158203
  1     6.31012821197510    10.57201862335205     6.72862529754639
  8    10.27956199645996     8.20515918731689     8.20633983612061
  8     1.64593148231506    12.01927375793457     7.25009536743164
  8     9.17426013946533     3.38019847869873    12.41989135742188
  8     3.70170116424561    11.43450641632080     7.80807924270630
  8     2.68201398849487     1.16536784172058    12.45348358154297
  7     3.89276456832886    13.38021087646484     9.66822528839111
  1     4.83328294754028    13.15177059173584     9.35307788848877
  7     3.67818021774292    14.25804615020752    10.66130828857422
  7    11.67532157897949     4.74893093109131    10.24986076354980
  7    11.38248062133789     5.82481813430786     9.47168922424316
  1    12.09917926788330     6.27440834045410     8.96817016601562
  6     9.48072052001953     5.21852445602417    10.17370033264160
  1     8.41043853759766     5.11871767044067    10.26237869262695
  6     9.54091072082520     7.36926555633545     8.71826457977295
  6     2.69603872299194    12.14020633697510     7.95179796218872
  6    10.21462440490723     3.31528854370117    11.76769351959229
  6     1.82030308246613     0.49718794226646    11.79012680053711
  6     1.70213997364044    13.83099937438965     9.61981201171875
  1     0.71439975500107    14.10211467742920     9.29113197326660
  6    10.46142005920410     4.36204338073730    10.67284011840820
  6    10.08586120605469     6.17813587188721     9.39566993713379
  6     2.40353918075562    14.57230567932129    10.65472126007080
  6     2.71773314476013    13.14686870574951     8.97531127929688
 13     8.58608722686768     2.14960050582886    13.94950103759766
 13    11.55093383789062     1.18056583404541    13.22671699523926
 13     2.47127556800842     2.12792706489563    14.03582382202148
  8    10.53363609313965    14.69330310821533    12.37189865112305
  8     5.88856935501099     8.07612133026123     9.27614402770996
  8     1.13691520690918     1.82112753391266     0.23864880204201
  1     1.45796787738800     1.85907781124115     1.14937198162079
  8     7.56622600555420    10.11833095550537     9.17973899841309
  8     0.59871751070023     2.39335203170776    13.97380065917969
  1     0.27782252430916     3.30112409591675    13.98929023742676
  8     8.46130657196045     0.81134134531021    12.52044677734375
  8     4.66111755371094     4.53498220443726    13.70206928253174
  8     9.45856857299805    10.92246627807617     8.22276210784912
  8     2.63339614868164     3.65260386466980    12.98832702636719
  8     3.82412934303284     8.75746822357178     8.71525001525879
  7     2.53200173377991     5.58895874023438    11.07231998443604
  1     1.65686392784119     5.15286540985107    10.99972534179688
  7     2.68960595130920     6.57349014282227    10.13440036773682
  7     7.15872764587402    12.85110855102539    10.03344058990479
  7     7.39197540283203    13.89468574523926    10.80593109130859
  1     6.67950630187988    14.64366531372070    10.91522216796875
  6     9.37540626525879    12.83995628356934    10.58380985260010
  1    10.39106178283691    12.53449630737305    10.72732543945312
  6     9.28773880004883    14.80115890502930    12.14253234863281
  6     3.65153288841248     4.46483516693115    12.94744586944580
  6     8.43388366699219    11.02223491668701     8.98464775085449
  6     4.64573097229004     7.95950317382812     9.30416774749756
  6     4.60879325866699     6.29277229309082    11.30107498168945
  1     5.65012836456299     6.47395372390747    11.66144561767578
  6     8.38012886047363    12.25127315521240     9.78606033325195
  6     8.71706867218018    13.84978771209717    11.26577186584473
  6     3.99662613868713     6.96951484680176    10.28715229034424
  6     3.62574219703674     5.45055913925171    11.86921310424805
 13     0.99783134460449    10.59679794311523     5.99684619903564
  8    12.06481933593750    11.85609340667725     5.20523643493652
  8     7.48798894882202     3.69924592971802     2.27674055099487
  8    11.78059673309326    10.17105102539062     7.19894218444824
  1    11.95227241516113    10.46936130523682     8.10361289978027
  8     9.09738159179688     1.76664173603058     2.13324570655823
  8     2.33554220199585     9.42141437530518     6.59934949874878
  1     2.03979969024658     8.81558227539062     7.32427120208740
  8     9.94902420043945    11.11418819427490     5.68990039825439
  8     6.43467235565186     7.23282337188721     6.73591232299805
  8    10.87886333465576     0.90989762544632     1.21282529830933
  8     4.28775691986084     7.75625467300415     6.22419881820679
  8     5.40625286102295     3.33264350891113     1.36928331851959
  7     4.17870521545410     5.86259937286377     4.28797197341919
  1     3.21019887924194     6.23348236083984     4.46400403976440
  7     4.34038114547729     4.91062593460083     3.30783009529114
  7     8.61012649536133    14.10119628906250     3.30343818664551
  7     8.91009521484375    13.01019859313965     4.07856369018555
  1     8.16990470886230    12.34668731689453     4.38749456405640
  6    10.88078594207764    13.84848403930664     3.57180356979370
  1    11.90302085876465    14.05279064178467     3.49434185028076
  6    10.79575443267822    11.85592460632324     5.09447097778320
  6     5.38012790679932     7.13312864303589     6.06549453735352
  6     9.92121791839600     0.84722691774368     1.99444782733917
  6     6.24212932586670     3.81099581718445     2.22906231880188
  6     6.34419059753418     5.44347572326660     4.20715713500977
  1     7.41534042358398     5.34434509277344     4.40883636474609
  6     9.83137607574463    14.63120269775391     2.98534631729126
  6    10.22379493713379    12.88037872314453     4.28315830230713
  6     5.64695358276367     4.72792148590088     3.26306867599487
  6     5.38531255722046     6.16739511489868     4.87762212753296
 13     8.53131008148193     3.13023519515991     0.71604204177856
  8     9.75403976440430     4.45382022857666     1.51445376873016
  8     2.27643370628357    11.11746215820312     4.62276363372803
  8     6.80621528625488     2.50984096527100    13.63348865509033
  1     6.52783203125000     2.26629734039307    12.75594902038574
  8     0.42041566967964     9.11059474945068     4.90223836898804
  8     7.29932308197021     1.92735135555267     0.16913530230522
  1     7.47014427185059     0.96786069869995     0.05968846008182
  8    11.79545307159424     3.81595134735107     0.90515875816345
  8     2.95442199707031    14.86909008026123     0.47131240367889
  8    10.49522495269775     8.40180492401123     5.50099420547485
  8     5.05193519592285     0.65430456399918     0.86244285106659
  8     4.36876153945923    10.59681701660156     5.36087131500244
  7     5.39550018310547    13.75414657592773     2.91294908523560
  1     6.33670806884766    14.24938774108887     2.74342417716980
  7     5.29285621643066    12.85059738159180     3.90514707565308
  7     0.91031956672668     6.56707334518433     3.76357364654541
  7     0.64328801631927     5.52199888229370     2.95015931129456
  1     1.27637481689453     4.74699068069458     2.88473391532898
  6    10.86470413208008     6.27019786834717     3.49824094772339
  1     9.80654716491699     6.22731971740723     3.54459810256958
  6    11.00936889648438     4.49324798583984     1.65807616710663
  6     4.06655406951904    14.79814720153809     1.04424870014191
  6    11.60506725311279     8.24741458892822     4.96715831756592
  6     3.53818321228027    11.30500698089600     4.72331857681274
  6     3.31927919387817    13.00846958160400     2.81664347648621
  1     2.35737943649292    12.86024951934814     2.46892142295837
  6    11.80615997314453     7.01218032836914     4.16313076019287
  6    11.47425746917725     5.32708215713501     2.68070006370544
  6     4.05027103424072    12.36630344390869     3.85089397430420
  6     4.23264980316162    13.82456779479980     2.18289828300476
  8     4.84008789062500    13.96092224121094    13.47397899627686
  1     4.19916534423828    13.20569133758545    13.53444099426270
  1     4.57591772079468    14.29653167724609    12.56770610809326
  8     9.29974269866943     9.55777359008789     1.89286375045776
  1     9.37415981292725    10.17267322540283     1.15231430530548
  1    10.21305084228516     9.59031963348389     2.25990557670593
  8     1.93693351745605     6.13867950439453     7.35828161239624
  1     2.18016815185547     6.30626964569092     8.31259155273438
  1     2.69019079208374     6.48089027404785     6.84895038604736
  8     8.74940013885498     0.39138016104698     6.56737089157104
  1     9.12772083282471     0.25921040773392     7.40085649490356
  1     8.30000782012939    14.48088455200195     6.23724031448364
  8     0.22381028532982    12.34625244140625    12.12266540527344
  1     0.24629887938499    11.71115970611572    11.37222194671631
  1    12.03893852233887    13.12709712982178    11.69466876983643
  8    10.15602874755859    11.17223739624023    13.53941440582275
  1     9.33656883239746    10.79139900207520    13.09807682037354
  1    10.72878932952881    11.51680088043213    12.86513805389404
  8     7.39748573303223     9.03767204284668     4.08975315093994
  1     6.47703886032104     9.35894298553467     3.92431521415710
  1     7.89513111114502     9.42038726806641     3.35128903388977
  8    11.92618942260742    10.32527828216553    10.18792533874512
  1     0.62149709463120     9.83384895324707    10.29321193695068
  1    11.28111743927002     9.68728446960449    10.74587631225586
  8    12.05225563049316    10.14216613769531     2.50096678733826
  1     0.40366685390472     9.99686431884766     3.30975651741028
  1     0.27030029892921    10.99673366546631     2.15610766410828
  8     3.79370164871216     1.52438938617706     7.53947210311890
  1     4.14130258560181     1.36477530002594     6.60359382629395
  1     2.81089997291565     1.69721662998199     7.50201463699341
  8     3.23687052726746     9.31818008422852    13.02364921569824
  1     2.43127536773682     8.91219711303711    12.65515327453613
  1     3.44673418998718     8.66209506988525    13.74784469604492
  8     3.17175102233887     2.34852075576782     2.67238903045654
  1     3.59618544578552     2.17322826385498     1.83047640323639
  1     3.57082939147949     3.19637393951416     2.87031149864197
  8     5.78218460083008     1.62377095222473    11.18167304992676
  1     5.78598880767822     2.25247645378113    10.42483806610107
  1     4.87554740905762     1.47128236293793    11.47379779815674
  8    11.19238948822021     0.98638081550598     8.97842693328857
  1    11.21235752105713     1.33386993408203     9.86619567871094
  1    11.84567928314209     1.59761691093445     8.59843254089355
  8     0.97191280126572     2.27759647369385     7.35844993591309
  1     0.69711780548096     3.23679399490356     7.42098760604858
  1     0.82499885559082     2.16372299194336     6.38524723052979
  8    10.40367221832275     4.62925338745117     6.72398281097412
  1    10.72892189025879     5.23155736923218     6.02490949630737
  1    10.32025527954102     3.72283482551575     6.29050731658936
  8     7.43543529510498     7.64730405807495     0.71982866525650
  1     8.06508159637451     8.26524257659912     1.09432649612427
  1     7.65628576278687     6.68825578689575     0.72749131917953
  8     7.94231939315796    10.22006893157959    12.29493999481201
  1     7.30265569686890    10.65535354614258    12.90520191192627
  1     7.58976030349731    10.12779140472412    11.39638710021973
  8     4.75116205215454     9.35430622100830     2.19461464881897
  1     5.41530895233154     8.64771747589111     2.10923385620117
  1     3.98013544082642     9.08029747009277     1.63086116313934
  8     5.39704608917236     3.40513420104980     9.10787773132324
  1     5.07944154739380     2.65533018112183     8.56626510620117
  1     6.16196393966675     3.79627180099487     8.61125564575195
  8     3.20274209976196    11.97966670989990    13.64077186584473
  1     2.50677561759949    12.18648338317871    12.96571731567383
  1     3.22882771492004    10.99690914154053    13.47683811187744
  8     0.17398515343666    13.06063842773438     0.97792923450470
  1     0.78834569454193    12.65220832824707     0.33331787586212
  1     0.11569777131081    13.98013114929199     0.76820546388626
  8     0.47894990444183     1.54030549526215     4.81600046157837
  1     1.17411768436432     1.84171187877655     4.22301578521729
  1    11.77251052856445     1.95593106746674     4.59544706344604
  8    10.42359161376953     8.65797996520996    11.64878654479980
  1     9.44878768920898     8.75756645202637    11.89092254638672
  1    10.78134918212891     8.73873043060303    12.54656028747559
  8     9.92569828033447    11.97325801849365     0.17104692757130
  1     6.34363698959351    12.66647243499756    14.01872062683105
  1    10.75218009948730    12.51984786987305     0.54565715789795
  8     7.55981969833374     4.42847633361816     7.45540237426758
  1     7.35235738754272     5.32854175567627     7.41030168533325
  1     8.48639011383057     4.46647596359253     7.67258548736572
  8     2.22165393829346     8.96830558776855     0.48379674553871
  1     1.50769710540771     8.63280487060547     1.02698755264282
  1     1.83491814136505     9.86116027832031     0.31705027818680
  8     6.49662685394287     2.15603637695312     6.22942495346069
  1     6.73428773880005     3.09057188034058     6.25692605972290
  1     7.36950397491455     1.65883839130402     6.47353267669678
  8     9.98602771759033     2.16076421737671     4.97858095169067
  1     9.42113494873047     2.33632135391235     4.22435379028320
  1     9.71514034271240     1.37185752391815     5.48301601409912
  8     6.99413871765137    12.68595314025879     6.17492485046387
  1     6.61685466766357    12.60286521911621     7.02977275848389
  1     6.27862262725830    12.72146797180176     5.47682189941406
