CRYSTAL
PRIMVEC
 0.00000000000000 4.06600000000000 4.06600000000000
 4.06600000000000 0.00000000000000 4.06600000000000
 4.06600000000000 4.06600000000000 0.00000000000000
PRIMCOORD
 2 1
 31     0.00000000000000     0.00000000000000     0.00000000000000
 33     6.09900000000000     6.09900000000000     6.09900000000000
